<?xml version="1.0" encoding="UTF-8"?>

<!-- generated on 2023-03-18 14:19:48 by Eclipse SUMO netconvert Version 1.13.0
<configuration xmlns:xsi="http://www.w3.org/2001/XMLSchema-instance" xsi:noNamespaceSchemaLocation="http://sumo.dlr.de/xsd/netconvertConfiguration.xsd">

    <input>
        <node-files value="C:\Users\Tribik\Documents\Mohamed\Etudes\MP\TIPE\Code\Ring\SumoFiles/ring.nodes.xml"/>
        <edge-files value="C:\Users\Tribik\Documents\Mohamed\Etudes\MP\TIPE\Code\Ring\SumoFiles/ring.edges.xml"/>
    </input>

    <output>
        <output-file value="C:\Users\Tribik\Documents\Mohamed\Etudes\MP\TIPE\Code\Ring\SumoFiles/ring.net.xml"/>
    </output>

    <report>
        <aggregate-warnings value="5"/>
    </report>

</configuration>
-->

<net version="1.9" junctionCornerDetail="5" limitTurnSpeed="5.50" xmlns:xsi="http://www.w3.org/2001/XMLSchema-instance" xsi:noNamespaceSchemaLocation="http://sumo.dlr.de/xsd/net_file.xsd">

    <location netOffset="120.00,120.00" convBoundary="0.00,0.00,240.00,240.00" origBoundary="-120.00,-120.00,120.00,120.00" projParameter="!"/>

    <edge id=":n0_0" function="internal">
        <lane id=":n0_0_0" index="0" speed="30.00" length="0.10" shape="241.60,119.95 241.60,120.05"/>
    </edge>
    <edge id=":n1_0" function="internal">
        <lane id=":n1_0_0" index="0" speed="30.00" length="0.10" shape="120.05,241.60 119.95,241.60"/>
    </edge>
    <edge id=":n2_0" function="internal">
        <lane id=":n2_0_0" index="0" speed="30.00" length="0.10" shape="-1.60,120.05 -1.60,119.95"/>
    </edge>
    <edge id=":n3_0" function="internal">
        <lane id=":n3_0_0" index="0" speed="30.00" length="0.10" shape="119.95,-1.60 120.05,-1.60"/>
    </edge>

    <edge id="e0" from="n0" to="n1" priority="1" shape="240.00,120.00 239.76,127.53 239.05,135.04 237.87,142.49 236.23,149.84 234.13,157.08 231.57,164.17 228.58,171.09 225.16,177.81 221.32,184.30 217.08,190.53 212.46,196.49 207.48,202.15 202.15,207.48 196.49,212.46 190.53,217.08 184.30,221.32 177.81,225.16 171.09,228.58 164.17,231.57 157.08,234.13 149.84,236.23 142.49,237.87 135.04,239.05 127.53,239.76 120.00,240.00">
        <lane id="e0_0" index="0" speed="30.00" length="190.88" shape="241.60,120.05 241.36,127.64 240.64,135.24 239.45,142.79 237.78,150.24 235.65,157.58 233.06,164.76 230.03,171.78 226.56,178.58 222.67,185.16 218.38,191.48 213.70,197.51 208.64,203.24 203.24,208.64 197.51,213.70 191.48,218.38 185.16,222.67 178.58,226.56 171.78,230.03 164.76,233.06 157.58,235.65 150.24,237.78 142.79,239.45 135.24,240.64 127.64,241.36 120.05,241.60"/>
    </edge>
    <edge id="e1" from="n1" to="n2" priority="1" shape="120.00,240.00 112.47,239.76 104.96,239.05 97.51,237.87 90.16,236.23 82.92,234.13 75.83,231.57 68.91,228.58 62.19,225.16 55.70,221.32 49.47,217.08 43.51,212.46 37.85,207.48 32.52,202.15 27.54,196.49 22.92,190.53 18.68,184.30 14.84,177.81 11.42,171.09 8.43,164.17 5.87,157.08 3.77,149.84 2.13,142.49 0.95,135.04 0.24,127.53 0.00,120.00">
        <lane id="e1_0" index="0" speed="30.00" length="190.88" shape="119.95,241.60 112.36,241.36 104.76,240.64 97.21,239.45 89.76,237.78 82.42,235.65 75.24,233.06 68.22,230.03 61.42,226.56 54.84,222.67 48.52,218.38 42.49,213.70 36.76,208.64 31.36,203.24 26.30,197.51 21.62,191.48 17.33,185.16 13.44,178.58 9.97,171.78 6.94,164.76 4.35,157.58 2.22,150.24 0.55,142.79 -0.64,135.24 -1.36,127.64 -1.60,120.05"/>
    </edge>
    <edge id="e2" from="n2" to="n3" priority="1" shape="0.00,120.00 0.24,112.47 0.95,104.96 2.13,97.51 3.77,90.16 5.87,82.92 8.43,75.83 11.42,68.91 14.84,62.19 18.68,55.70 22.92,49.47 27.54,43.51 32.52,37.85 37.85,32.52 43.51,27.54 49.47,22.92 55.70,18.68 62.19,14.84 68.91,11.42 75.83,8.43 82.92,5.87 90.16,3.77 97.51,2.13 104.96,0.95 112.47,0.24 120.00,0.00">
        <lane id="e2_0" index="0" speed="30.00" length="190.88" shape="-1.60,119.95 -1.36,112.36 -0.64,104.76 0.55,97.21 2.22,89.76 4.35,82.42 6.94,75.24 9.97,68.22 13.44,61.42 17.33,54.84 21.62,48.52 26.30,42.49 31.36,36.76 36.76,31.36 42.49,26.30 48.52,21.62 54.84,17.33 61.42,13.44 68.22,9.97 75.24,6.94 82.42,4.35 89.76,2.22 97.21,0.55 104.76,-0.64 112.36,-1.36 119.95,-1.60"/>
    </edge>
    <edge id="e3" from="n3" to="n0" priority="1" shape="120.00,0.00 127.53,0.24 135.04,0.95 142.49,2.13 149.84,3.77 157.08,5.87 164.17,8.43 171.09,11.42 177.81,14.84 184.30,18.68 190.53,22.92 196.49,27.54 202.15,32.52 207.48,37.85 212.46,43.51 217.08,49.47 221.32,55.70 225.16,62.19 228.58,68.91 231.57,75.83 234.13,82.92 236.23,90.16 237.87,97.51 239.05,104.96 239.76,112.47 240.00,120.00">
        <lane id="e3_0" index="0" speed="30.00" length="190.88" shape="120.05,-1.60 127.64,-1.36 135.24,-0.64 142.79,0.55 150.24,2.22 157.58,4.35 164.76,6.94 171.78,9.97 178.58,13.44 185.16,17.33 191.48,21.62 197.51,26.30 203.24,31.36 208.64,36.76 213.70,42.49 218.38,48.52 222.67,54.84 226.56,61.42 230.03,68.22 233.06,75.24 235.65,82.42 237.78,89.76 239.45,97.21 240.64,104.76 241.36,112.36 241.60,119.95"/>
    </edge>

    <junction id="n0" type="priority" x="240.00" y="120.00" incLanes="e3_0" intLanes=":n0_0_0" shape="243.20,119.90 240.00,120.00 243.20,120.10">
        <request index="0" response="0" foes="0" cont="0"/>
    </junction>
    <junction id="n1" type="priority" x="120.00" y="240.00" incLanes="e0_0" intLanes=":n1_0_0" shape="120.10,243.20 120.00,240.00 119.90,243.20">
        <request index="0" response="0" foes="0" cont="0"/>
    </junction>
    <junction id="n2" type="priority" x="0.00" y="120.00" incLanes="e1_0" intLanes=":n2_0_0" shape="-3.20,120.10 0.00,120.00 -3.20,119.90">
        <request index="0" response="0" foes="0" cont="0"/>
    </junction>
    <junction id="n3" type="priority" x="120.00" y="0.00" incLanes="e2_0" intLanes=":n3_0_0" shape="120.00,0.00 120.10,-3.20 119.90,-3.20">
        <request index="0" response="0" foes="0" cont="0"/>
    </junction>

    <connection from="e0" to="e1" fromLane="0" toLane="0" via=":n1_0_0" dir="s" state="M"/>
    <connection from="e1" to="e2" fromLane="0" toLane="0" via=":n2_0_0" dir="s" state="M"/>
    <connection from="e2" to="e3" fromLane="0" toLane="0" via=":n3_0_0" dir="s" state="M"/>
    <connection from="e3" to="e0" fromLane="0" toLane="0" via=":n0_0_0" dir="s" state="M"/>

    <connection from=":n0_0" to="e0" fromLane="0" toLane="0" dir="s" state="M"/>
    <connection from=":n1_0" to="e1" fromLane="0" toLane="0" dir="s" state="M"/>
    <connection from=":n2_0" to="e2" fromLane="0" toLane="0" dir="s" state="M"/>
    <connection from=":n3_0" to="e3" fromLane="0" toLane="0" dir="s" state="M"/>

</net>
