<?xml version="1.0" encoding="UTF-8"?>

<!-- generated on 2023-04-05 13:08:15 by Eclipse SUMO netconvert Version 1.13.0
<configuration xmlns:xsi="http://www.w3.org/2001/XMLSchema-instance" xsi:noNamespaceSchemaLocation="http://sumo.dlr.de/xsd/netconvertConfiguration.xsd">

    <input>
        <node-files value="C:\Users\Tribik\Documents\Mohamed\Etudes\MP\TIPE\Code\Ring\SumoFiles/ring.nodes.xml"/>
        <edge-files value="C:\Users\Tribik\Documents\Mohamed\Etudes\MP\TIPE\Code\Ring\SumoFiles/ring.edges.xml"/>
    </input>

    <output>
        <output-file value="C:\Users\Tribik\Documents\Mohamed\Etudes\MP\TIPE\Code\Ring\SumoFiles/ring.net.xml"/>
    </output>

    <report>
        <aggregate-warnings value="5"/>
    </report>

</configuration>
-->

<net version="1.9" junctionCornerDetail="5" limitTurnSpeed="5.50" xmlns:xsi="http://www.w3.org/2001/XMLSchema-instance" xsi:noNamespaceSchemaLocation="http://sumo.dlr.de/xsd/net_file.xsd">

    <location netOffset="50.00,50.00" convBoundary="0.00,0.00,100.00,100.00" origBoundary="-50.00,-50.00,50.00,50.00" projParameter="!"/>

    <edge id=":n0_0" function="internal">
        <lane id=":n0_0_0" index="0" speed="30.00" length="0.10" shape="101.60,49.95 101.60,50.05"/>
    </edge>
    <edge id=":n1_0" function="internal">
        <lane id=":n1_0_0" index="0" speed="30.00" length="0.10" shape="50.05,101.60 49.95,101.60"/>
    </edge>
    <edge id=":n2_0" function="internal">
        <lane id=":n2_0_0" index="0" speed="30.00" length="0.10" shape="-1.60,50.05 -1.60,49.95"/>
    </edge>
    <edge id=":n3_0" function="internal">
        <lane id=":n3_0_0" index="0" speed="30.00" length="0.10" shape="49.95,-1.60 50.05,-1.60"/>
    </edge>

    <edge id="e0" from="n0" to="n1" priority="1" shape="100.00,50.00 99.90,53.14 99.61,56.27 99.11,59.37 98.43,62.43 97.55,65.45 96.49,68.41 95.24,71.29 93.82,74.09 92.22,76.79 90.45,79.39 88.53,81.87 86.45,84.23 84.23,86.45 81.87,88.53 79.39,90.45 76.79,92.22 74.09,93.82 71.29,95.24 68.41,96.49 65.45,97.55 62.43,98.43 59.37,99.11 56.27,99.61 53.14,99.90 50.00,100.00">
        <lane id="e0_0" index="0" speed="30.00" length="80.94" shape="101.60,50.05 101.50,53.24 101.19,56.47 100.69,59.67 99.98,62.83 99.08,65.95 97.98,69.00 96.69,71.97 95.22,74.86 93.57,77.65 91.75,80.33 89.76,82.89 87.62,85.32 85.32,87.62 82.89,89.76 80.33,91.75 77.65,93.57 74.86,95.22 71.97,96.69 69.00,97.98 65.95,99.08 62.83,99.98 59.67,100.69 56.47,101.19 53.24,101.50 50.05,101.60"/>
    </edge>
    <edge id="e1" from="n1" to="n2" priority="1" shape="50.00,100.00 46.86,99.90 43.73,99.61 40.63,99.11 37.57,98.43 34.55,97.55 31.59,96.49 28.71,95.24 25.91,93.82 23.21,92.22 20.61,90.45 18.13,88.53 15.77,86.45 13.55,84.23 11.47,81.87 9.55,79.39 7.78,76.79 6.18,74.09 4.76,71.29 3.51,68.41 2.45,65.45 1.57,62.43 0.89,59.37 0.39,56.27 0.10,53.14 0.00,50.00">
        <lane id="e1_0" index="0" speed="30.00" length="80.94" shape="49.95,101.60 46.76,101.50 43.53,101.19 40.33,100.69 37.17,99.98 34.05,99.08 31.00,97.98 28.03,96.69 25.14,95.22 22.35,93.57 19.67,91.75 17.11,89.76 14.68,87.62 12.38,85.32 10.24,82.89 8.25,80.33 6.43,77.65 4.78,74.86 3.31,71.97 2.02,69.00 0.92,65.95 0.02,62.83 -0.69,59.67 -1.19,56.47 -1.50,53.24 -1.60,50.05"/>
    </edge>
    <edge id="e2" from="n2" to="n3" priority="1" shape="0.00,50.00 0.10,46.86 0.39,43.73 0.89,40.63 1.57,37.57 2.45,34.55 3.51,31.59 4.76,28.71 6.18,25.91 7.78,23.21 9.55,20.61 11.47,18.13 13.55,15.77 15.77,13.55 18.13,11.47 20.61,9.55 23.21,7.78 25.91,6.18 28.71,4.76 31.59,3.51 34.55,2.45 37.57,1.57 40.63,0.89 43.73,0.39 46.86,0.10 50.00,0.00">
        <lane id="e2_0" index="0" speed="30.00" length="80.94" shape="-1.60,49.95 -1.50,46.76 -1.19,43.53 -0.69,40.33 0.02,37.17 0.92,34.05 2.02,31.00 3.31,28.03 4.78,25.14 6.43,22.35 8.25,19.67 10.24,17.11 12.38,14.68 14.68,12.38 17.11,10.24 19.67,8.25 22.35,6.43 25.14,4.78 28.03,3.31 31.00,2.02 34.05,0.92 37.17,0.02 40.33,-0.69 43.53,-1.19 46.76,-1.50 49.95,-1.60"/>
    </edge>
    <edge id="e3" from="n3" to="n0" priority="1" shape="50.00,0.00 53.14,0.10 56.27,0.39 59.37,0.89 62.43,1.57 65.45,2.45 68.41,3.51 71.29,4.76 74.09,6.18 76.79,7.78 79.39,9.55 81.87,11.47 84.23,13.55 86.45,15.77 88.53,18.13 90.45,20.61 92.22,23.21 93.82,25.91 95.24,28.71 96.49,31.59 97.55,34.55 98.43,37.57 99.11,40.63 99.61,43.73 99.90,46.86 100.00,50.00">
        <lane id="e3_0" index="0" speed="30.00" length="80.94" shape="50.05,-1.60 53.24,-1.50 56.47,-1.19 59.67,-0.69 62.83,0.02 65.95,0.92 69.00,2.02 71.97,3.31 74.86,4.78 77.65,6.43 80.33,8.25 82.89,10.24 85.32,12.38 87.62,14.68 89.76,17.11 91.75,19.67 93.57,22.35 95.22,25.14 96.69,28.03 97.98,31.00 99.08,34.05 99.98,37.17 100.69,40.33 101.19,43.53 101.50,46.76 101.60,49.95"/>
    </edge>

    <junction id="n0" type="priority" x="100.00" y="50.00" incLanes="e3_0" intLanes=":n0_0_0" shape="103.20,49.90 100.00,50.00 103.20,50.10">
        <request index="0" response="0" foes="0" cont="0"/>
    </junction>
    <junction id="n1" type="priority" x="50.00" y="100.00" incLanes="e0_0" intLanes=":n1_0_0" shape="50.10,103.20 50.00,100.00 49.90,103.20">
        <request index="0" response="0" foes="0" cont="0"/>
    </junction>
    <junction id="n2" type="priority" x="0.00" y="50.00" incLanes="e1_0" intLanes=":n2_0_0" shape="-3.20,50.10 0.00,50.00 -3.20,49.90">
        <request index="0" response="0" foes="0" cont="0"/>
    </junction>
    <junction id="n3" type="priority" x="50.00" y="0.00" incLanes="e2_0" intLanes=":n3_0_0" shape="50.00,0.00 50.10,-3.20 49.90,-3.20">
        <request index="0" response="0" foes="0" cont="0"/>
    </junction>

    <connection from="e0" to="e1" fromLane="0" toLane="0" via=":n1_0_0" dir="s" state="M"/>
    <connection from="e1" to="e2" fromLane="0" toLane="0" via=":n2_0_0" dir="s" state="M"/>
    <connection from="e2" to="e3" fromLane="0" toLane="0" via=":n3_0_0" dir="s" state="M"/>
    <connection from="e3" to="e0" fromLane="0" toLane="0" via=":n0_0_0" dir="s" state="M"/>

    <connection from=":n0_0" to="e0" fromLane="0" toLane="0" dir="s" state="M"/>
    <connection from=":n1_0" to="e1" fromLane="0" toLane="0" dir="s" state="M"/>
    <connection from=":n2_0" to="e2" fromLane="0" toLane="0" dir="s" state="M"/>
    <connection from=":n3_0" to="e3" fromLane="0" toLane="0" dir="s" state="M"/>

</net>
